THERMO


! vib model: harm
! tors model: 1dhrfa
! sym model: HCO_model
! sort freqs level: RUwb97xd/def2-svp
! sort sp    level: RUwb97xd/def2-svp
! sort G(700.0 K) minimum
! energy level:
!     1.000 x RUccsd(t)-f12-ri/cc-pvdz-f12//RUrevdsd/def2-tzvpp
! tors level: RUrevdsd/def2-tzvpp//RUrevdsd/def2-tzvpp
! CBH reference scheme: basic



! Hf(0 K) = -26.78, ! Hf(298 K) = -32.73 kcal/mol
S(1228)r0               C   5H   8O   1     G     200.0    3000.0  1000.0      1
 5.83736328E+00 3.72825866E-02-1.84192154E-05 4.42726039E-09-4.19270131E-13    2
-2.02957956E+04-5.78273133E+00 1.97432571E+00 2.93125481E-02 3.95108922E-05    3
-7.47233021E-08 3.26342608E-11-1.85808403E+04 1.80273097E+01                   4




END

