THERMO

! vib model: harm
! tors model: 1dhrfa
! sym model: HCO_model
! sort freqs level: RUwb97xd/def2-svp
! sort sp    level: RUwb97xd/def2-svp
! sort G(700.0 K) minimum
! energy level:
!     1.000 x RUccsd(t)-f12-ri/cc-pvdz-f12//RUrevdsd/jun-cc-pvtz
! tors level: RUrevdsd/jun-cc-pvtz//RUrevdsd/jun-cc-pvtz
! CBH reference scheme: basic

! Hf(0 K) = 7.69, ! Hf(298 K) = 7.85 kcal/mol
OH(4)                   H   1O   1          G     200.0    3000.0  1000.0      1
 3.35750446E+00-8.06697777E-05 5.78219909E-07-2.41401813E-10 3.04848146E-14    2
 2.99869528E+03 3.05458125E+00 4.12406807E+00-3.28074711E-03 6.76196988E-06    3
-6.20887564E-09 2.24772239E-12 2.81934129E+03-6.97601712E-01                   4


! vib model: harm
! tors model: 1dhrfa
! sym model: HCO_model
! sort freqs level: RUwb97xd/def2-svp
! sort sp    level: RUwb97xd/def2-svp
! sort G(700.0 K) minimum
! energy level:
!     1.000 x RUccsd(t)-f12-ri/cc-pvdz-f12//RUrevdsd/jun-cc-pvtz
! tors level: RUrevdsd/jun-cc-pvtz//RUrevdsd/jun-cc-pvtz
! CBH reference scheme: basic

! Hf(0 K) = -57.11, ! Hf(298 K) = -57.80 kcal/mol
H2O(5)                  H   2O   1          G     200.0    3000.0  1000.0      1
 3.20349095E+00 1.75969560E-03 7.39918375E-08-1.92098265E-10 3.08624284E-14    2
-3.00564293E+04 4.05949648E+00 4.20729567E+00-2.14823567E-03 6.63589520E-06    3
-5.61155198E-09 1.79253934E-12-3.02910415E+04-8.81495910E-01                   4


! vib model: harm
! tors model: 1dhrfa
! sym model: HCO_model
! sort freqs level: RUwb97xd/def2-svp
! sort sp    level: RUwb97xd/def2-svp
! sort G(700.0 K) minimum
! energy level:
!     1.000 x RUccsd(t)-f12-ri/cc-pvdz-f12//RUrevdsd/jun-cc-pvtz
! tors level: RUrevdsd/jun-cc-pvtz//RUrevdsd/jun-cc-pvtz
! CBH reference scheme: basic

! Hf(0 K) = -3.54, ! Hf(298 K) = -3.54 kcal/mol
O2(6)                   O   2               G     200.0    3000.0  1000.0      1
 3.01117155E+00 2.01822992E-03-1.15242437E-06 3.07689688E-10-3.14949299E-14    2
-2.77810612E+03 6.91330862E+00 3.76320836E+00-2.77271793E-03 8.93109065E-06    3
-8.55260260E-09 2.78419339E-12-2.84390526E+03 3.71712143E+00                   4


! vib model: harm
! tors model: 1dhrfa
! sym model: HCO_model
! sort freqs level: RUwb97xd/def2-svp
! sort sp    level: RUwb97xd/def2-svp
! sort G(700.0 K) minimum
! energy level:
!     1.000 x RUccsd(t)-f12-ri/cc-pvdz-f12//RUrevdsd/jun-cc-pvtz
! tors level: RUrevdsd/jun-cc-pvtz//RUrevdsd/jun-cc-pvtz
! CBH reference scheme: basic

! Hf(0 K) = 1.61, ! Hf(298 K) = 0.91 kcal/mol
HO2(8)                  H   1O   2          G     200.0    3000.0  1000.0      1
 3.44103145E+00 3.36231541E-03-1.43867520E-06 3.04723590E-10-2.58661899E-14    2
-7.53554726E+02 6.85596373E+00 4.41654392E+00-5.55607991E-03 2.21733269E-05    3
-2.45909056E-08 9.20064382E-12-7.61931590E+02 3.22167215E+00                   4


! vib model: harm
! tors model: 1dhrfa
! sym model: HCO_model
! sort freqs level: RUwb97xd/def2-svp
! sort sp    level: RUwb97xd/def2-svp
! sort G(700.0 K) minimum
! energy level:
!     1.000 x RUccsd(t)-f12-ri/cc-pvdz-f12//RUrevdsd/jun-cc-pvtz
! tors level: RUrevdsd/jun-cc-pvtz//RUrevdsd/jun-cc-pvtz
! CBH reference scheme: basic

! Hf(0 K) = -31.44, ! Hf(298 K) = -32.87 kcal/mol
H2O2(10)                H   2O   2          G     200.0    3000.0  1000.0      1
 4.57250844E+00 3.87041936E-03-1.31565538E-06 2.08758030E-10-1.21361211E-14    2
-1.81680593E+04 8.01021606E-01 4.39024983E+00-1.53345373E-03 1.95442637E-05    3
-2.52553734E-08 1.01782079E-11-1.79092065E+04 2.97439084E+00                   4


! vib model: harm
! tors model: 1dhrfa
! sym model: HCO_model
! sort freqs level: RUwb97xd/def2-svp
! sort sp    level: RUwb97xd/def2-svp
! sort G(700.0 K) minimum
! energy level:
!     1.000 x RUccsd(t)-f12-ri/cc-pvdz-f12//RUrevdsd/jun-cc-pvtz
! tors level: RUrevdsd/jun-cc-pvtz//RUrevdsd/jun-cc-pvtz
! CBH reference scheme: basic

! Hf(0 K) = 13.95, ! Hf(298 K) = 11.91 kcal/mol
C2H4(52)                C   2H   4          G     200.0    3000.0  1000.0      1
 1.73088420E+00 1.48929113E-02-6.93870377E-06 1.57952641E-09-1.42486281E-13    2
 4.74125913E+03 1.20340932E+01 4.12957788E+00-8.88749680E-03 5.91765259E-05    3
-7.08031509E-08 2.75066757E-11 4.76019651E+03 3.40256614E+00                   4


! vib model: harm
! tors model: 1dhrfa
! sym model: HCO_model
! sort freqs level: RUwb97xd/def2-svp
! sort sp    level: RUwb97xd/def2-svp
! sort G(700.0 K) minimum
! energy level:
!     1.000 x RUccsd(t)-f12-ri/cc-pvdz-f12//RUrevdsd/jun-cc-pvtz
! tors level: RUrevdsd/jun-cc-pvtz//RUrevdsd/jun-cc-pvtz
! CBH reference scheme: basic

! Hf(0 K) = 41.94, ! Hf(298 K) = 39.10 kcal/mol
C3H5(122)               C   3H   5          G     200.0    3000.0  1000.0      1
 3.87616227E+00 1.91922342E-02-9.08634670E-06 2.10225262E-09-1.92609951E-13    2
 1.74668056E+04 2.85239703E+00 1.81558780E+00 1.43672474E-02 2.61429852E-05    3
-4.75574986E-08 2.11233706E-11 1.83485045E+04 1.55209173E+01                   4


! vib model: harm
! tors model: 1dhrfa
! sym model: HCO_model
! sort freqs level: RUwb97xd/def2-svp
! sort sp    level: RUwb97xd/def2-svp
! sort G(700.0 K) minimum
! energy level:
!     1.000 x RUccsd(t)-f12-ri/cc-pvdz-f12//RUrevdsd/jun-cc-pvtz
! tors level: RUrevdsd/jun-cc-pvtz//RUrevdsd/jun-cc-pvtz
! CBH reference scheme: basic

! Hf(0 K) = -14.98, ! Hf(298 K) = -17.28 kcal/mol
C3H4O(165)              C   3H   4O   1     G     200.0    3000.0  1000.0      1
 5.51201418E+00 1.74665281E-02-8.49940573E-06 2.01321756E-09-1.88147961E-13    2
-1.12411321E+04-2.72529065E+00 1.84575817E+00 2.78846228E-02-1.49162389E-05    3
-2.57967581E-09 4.06973992E-12-1.03483333E+04 1.58571231E+01                   4


! vib model: harm
! tors model: 1dhrfa
! sym model: HCO_model
! sort freqs level: RUwb97xd/def2-svp
! sort sp    level: RUwb97xd/def2-svp
! sort G(700.0 K) minimum
! energy level:
!     1.000 x RUccsd(t)-f12-ri/cc-pvdz-f12//RUrevdsd/jun-cc-pvtz
! tors level: RUrevdsd/jun-cc-pvtz//RUrevdsd/jun-cc-pvtz
! CBH reference scheme: basic

! Hf(0 K) = -7.66, ! Hf(298 K) = -10.53 kcal/mol
C2H4O2(58)              C   2H   4O   2     G     200.0    3000.0  1000.0      1
 8.78898456E+00 1.15282089E-02-4.86890541E-06 1.00871328E-09-8.32436650E-14    2
-8.72764838E+03-1.84331536E+01 9.68739005E-01 3.43448520E-02-1.66429925E-05    3
-1.50175793E-08 1.27207385E-11-6.94525197E+03 2.07986913E+01                   4


! vib model: harm
! tors model: 1dhrfa
! sym model: HCO_model
! sort freqs level: RUwb97xd/def2-svp
! sort sp    level: RUwb97xd/def2-svp
! sort G(700.0 K) minimum
! energy level:
!     1.000 x RUccsd(t)-f12-ri/cc-pvdz-f12//RUrevdsd/jun-cc-pvtz
! tors level: RUrevdsd/jun-cc-pvtz//RUrevdsd/jun-cc-pvtz
! CBH reference scheme: basic

! Hf(0 K) = 20.14, ! Hf(298 K) = 16.77 kcal/mol
S(2258)z                C   3H   5O   2     G     200.0    3000.0  1000.0      1
 9.07637529E+00 1.92902440E-02-9.29620373E-06 2.19002607E-09-2.04155257E-13    2
 4.48504601E+03-1.80265740E+01 2.98836128E+00 2.85725548E-02 8.02411115E-06    3
-3.80867281E-08 1.95579873E-11 6.27522640E+03 1.45705178E+01                   4


! vib model: harm
! tors model: 1dhrfa
! sym model: HCO_model
! sort freqs level: RUwb97xd/def2-svp
! sort sp    level: RUwb97xd/def2-svp
! sort G(700.0 K) minimum
! energy level:
!     1.000 x RUccsd(t)-f12-ri/cc-pvdz-f12//RUrevdsd/jun-cc-pvtz
! tors level: RUrevdsd/jun-cc-pvtz//RUrevdsd/jun-cc-pvtz
! CBH reference scheme: basic

! Hf(0 K) = 21.04, ! Hf(298 K) = 17.77 kcal/mol
S(2258)e                C   3H   5O   2     G     200.0    3000.0  1000.0      1
 9.14058476E+00 1.85753091E-02-8.70555285E-06 2.00531268E-09-1.83616486E-13    2
 5.18050028E+03-1.78354624E+01 9.51941748E-01 5.20315752E-02-6.03252564E-05    3
 3.73842612E-08-9.21048452E-12 6.80821458E+03 2.15469995E+01                   4


! vib model: harm
! tors model: 1dhrfa
! sym model: HCO_model
! sort freqs level: RUwb97xd/def2-svp
! sort sp    level: RUwb97xd/def2-svp
! sort G(700.0 K) minimum
! energy level:
!     1.000 x RUccsd(t)-f12-ri/cc-pvdz-f12//RUrevdsd/jun-cc-pvtz
! tors level: RUrevdsd/jun-cc-pvtz//RUrevdsd/jun-cc-pvtz
! CBH reference scheme: basic

! Hf(0 K) = 34.33, ! Hf(298 K) = 30.21 kcal/mol
C5H6(478)               C   5H   6          G     200.0    3000.0  1000.0      1
 4.56198474E+00 2.98525168E-02-1.49577070E-05 3.63155593E-09-3.46383557E-13    2
 1.19769692E+04-2.92481478E+00 1.37342020E+00 1.03996651E-02 8.08200758E-05    3
-1.21115183E-07 5.12639884E-11 1.38306423E+04 1.93446222E+01                   4


! vib model: harm
! tors model: 1dhrfa
! sym model: HCO_model
! sort freqs level: RUwb97xd/def2-svp
! sort sp    level: RUwb97xd/def2-svp
! sort G(700.0 K) minimum
! energy level:
!     1.000 x RUccsd(t)-f12-ri/cc-pvdz-f12//RUrevdsd/jun-cc-pvtz
! tors level: RUrevdsd/jun-cc-pvtz//RUrevdsd/jun-cc-pvtz
! CBH reference scheme: basic

! Hf(0 K) = 99.49, ! Hf(298 K) = 95.56 kcal/mol
C5H6alwnib              C   5H   6          G     200.0    3000.0  1000.0      1
 4.33484245E+00 3.04613210E-02-1.53937171E-05 3.76094593E-09-3.60398674E-13    2
 4.49701969E+04-1.71579468E+00 2.19803209E+00 9.31500790E-03 7.69202157E-05    3
-1.12673097E-07 4.70428349E-11 4.65367169E+04 1.49946543E+01                   4


! vib model: harm
! tors model: 1dhrfa
! sym model: HCO_model
! sort freqs level: RUwb97xd/def2-svp
! sort sp    level: RUwb97xd/def2-svp
! sort G(700.0 K) minimum
! energy level:
!     1.000 x RUccsd(t)-f12-ri/cc-pvdz-f12//RUrevdsd/jun-cc-pvtz
! tors level: RUrevdsd/jun-cc-pvtz//RUrevdsd/jun-cc-pvtz
! CBH reference scheme: basic

! Hf(0 K) = 72.57, ! Hf(298 K) = 67.69 kcal/mol
C5H7(1202)              C   5H   7          G     200.0    3000.0  1000.0      1
 3.07408092E+00 3.51546751E-02-1.76798617E-05 4.30053250E-09-4.10516407E-13    2
 3.11218760E+04 6.72928322E+00 3.26235375E+00-1.18363353E-03 1.09807159E-04    3
-1.46915392E-07 5.94684236E-11 3.24352772E+04 1.34591122E+01                   4


! vib model: harm
! tors model: 1dhrfa
! sym model: HCO_model
! sort freqs level: RUwb97xd/def2-svp
! sort sp    level: RUwb97xd/def2-svp
! sort G(700.0 K) minimum
! energy level:
!     1.000 x RUccsd(t)-f12-ri/cc-pvdz-f12//RUrevdsd/jun-cc-pvtz
! tors level: RUrevdsd/jun-cc-pvtz//RUrevdsd/jun-cc-pvtz
! CBH reference scheme: basic

! Hf(0 K) = 43.12, ! Hf(298 K) = 38.34 kcal/mol
C5H7(500)               C   5H   7          G     200.0    3000.0  1000.0      1
 4.27754970E+00 3.35156592E-02-1.67567499E-05 4.05862234E-09-3.86221938E-13    2
 1.60009120E+04-5.39955382E-02 2.46420434E+00 5.25437941E-03 9.90976010E-05    3
-1.40286512E-07 5.81791864E-11 1.76999821E+04 1.62799474E+01                   4


! vib model: harm
! tors model: 1dhrfa
! sym model: HCO_model
! sort freqs level: RUwb97xd/def2-svp
! sort sp    level: RUwb97xd/def2-svp
! sort G(700.0 K) minimum
! energy level:
!     1.000 x RUccsd(t)-f12-ri/cc-pvdz-f12//RUrevdsd/jun-cc-pvtz
! tors level: RUrevdsd/jun-cc-pvtz//RUrevdsd/jun-cc-pvtz
! CBH reference scheme: basic

! Hf(0 K) = 54.94, ! Hf(298 K) = 50.25 kcal/mol
C5H7(504)               C   5H   7          G     200.0    3000.0  1000.0      1
 4.33746978E+00 3.35944833E-02-1.68474807E-05 4.08927281E-09-3.89715703E-13    2
 2.20173904E+04-1.06887351E+00 2.85860913E+00 6.25506255E-03 9.28035699E-05    3
-1.31640615E-07 5.45074033E-11 2.35686594E+04 1.31796456E+01                   4


! vib model: harm
! tors model: 1dhrfa
! sym model: HCO_model
! sort freqs level: RUwb97xd/def2-svp
! sort sp    level: RUwb97xd/def2-svp
! sort G(700.0 K) minimum
! energy level:
!     1.000 x RUccsd(t)-f12-ri/cc-pvdz-f12//RUrevdsd/jun-cc-pvtz
! tors level: RUrevdsd/jun-cc-pvtz//RUrevdsd/jun-cc-pvtz
! CBH reference scheme: basic

! Hf(0 K) = 56.80, ! Hf(298 K) = 52.62 kcal/mol
C5H7(507)zz             C   5H   7          G     200.0    3000.0  1000.0      1
 5.77944299E+00 3.08650109E-02-1.50515578E-05 3.57403986E-09-3.34831254E-13    2
 2.30027436E+04-5.57165979E+00 3.02966537E+00 1.78237998E-02 5.42183678E-05    3
-8.80181463E-08 3.77784181E-11 2.44585483E+04 1.28317959E+01                   4


! vib model: harm
! tors model: 1dhrfa
! sym model: HCO_model
! sort freqs level: RUwb97xd/def2-svp
! sort sp    level: RUwb97xd/def2-svp
! sort G(700.0 K) minimum
! energy level:
!     1.000 x RUccsd(t)-f12-ri/cc-pvdz-f12//RUrevdsd/jun-cc-pvtz
! tors level: RUrevdsd/jun-cc-pvtz//RUrevdsd/jun-cc-pvtz
! CBH reference scheme: basic

! Hf(0 K) = 53.63, ! Hf(298 K) = 49.47 kcal/mol
C5H7(507)ze             C   5H   7          G     200.0    3000.0  1000.0      1
 5.88035137E+00 3.07522614E-02-1.49929078E-05 3.55883836E-09-3.33267227E-13    2
 2.13929931E+04-5.36098316E+00 3.06330617E+00 1.78399989E-02 5.44466971E-05    3
-8.85258750E-08 3.80411489E-11 2.28659297E+04 1.33922362E+01                   4


! vib model: harm
! tors model: 1dhrfa
! sym model: HCO_model
! sort freqs level: RUwb97xd/def2-svp
! sort sp    level: RUwb97xd/def2-svp
! sort G(700.0 K) minimum
! energy level:
!     1.000 x RUccsd(t)-f12-ri/cc-pvdz-f12//RUrevdsd/jun-cc-pvtz
! tors level: RUrevdsd/jun-cc-pvtz//RUrevdsd/jun-cc-pvtz
! CBH reference scheme: basic

! Hf(0 K) = 51.54, ! Hf(298 K) = 47.37 kcal/mol
C5H7(507)ee             C   5H   7          G     200.0    3000.0  1000.0      1
 5.86251725E+00 3.08402273E-02-1.50655211E-05 3.58226283E-09-3.35964665E-13    2
 2.03394783E+04-6.89329113E+00 2.98440435E+00 1.86153587E-02 5.22623102E-05    3
-8.60076902E-08 3.70291385E-11 2.18118827E+04 1.20710032E+01                   4


! vib model: harm
! tors model: 1dhrfa
! sym model: HCO_model
! sort freqs level: RUwb97xd/def2-svp
! sort sp    level: RUwb97xd/def2-svp
! sort G(700.0 K) minimum
! energy level:
!     1.000 x RUccsd(t)-f12-ri/cc-pvdz-f12//RUrevdsd/jun-cc-pvtz
! tors level: RUrevdsd/jun-cc-pvtz//RUrevdsd/jun-cc-pvtz
! CBH reference scheme: basic

! Hf(0 K) = 86.47, ! Hf(298 K) = 83.17 kcal/mol
C5H7(487)z              C   5H   7          G     200.0    3000.0  1000.0      1
 5.46147988E+00 2.99247942E-02-1.44716343E-05 3.40583102E-09-3.16314102E-13    2
 3.86767618E+04 1.30809451E+00 8.97725472E+00-1.23801987E-02 1.08009503E-04    3
-1.32281487E-07 5.16790840E-11 3.90091873E+04-9.68333733E+00                   4


! vib model: harm
! tors model: 1dhrfa
! sym model: HCO_model
! sort freqs level: RUwb97xd/def2-svp
! sort sp    level: RUwb97xd/def2-svp
! sort G(700.0 K) minimum
! energy level:
!     1.000 x RUccsd(t)-f12-ri/cc-pvdz-f12//RUrevdsd/jun-cc-pvtz
! tors level: RUrevdsd/jun-cc-pvtz//RUrevdsd/jun-cc-pvtz
! CBH reference scheme: basic

! Hf(0 K) = 86.06, ! Hf(298 K) = 82.77 kcal/mol
C5H7(487)e              C   5H   7          G     200.0    3000.0  1000.0      1
 5.43611213E+00 2.99940520E-02-1.45218987E-05 3.42092649E-09-3.17966348E-13    2
 3.84900663E+04 1.38583492E+00 9.09095278E+00-1.24367519E-02 1.07160071E-04    3
-1.30767539E-07 5.09644930E-11 3.87805956E+04-1.03622170E+01                   4


! vib model: harm
! tors model: 1dhrfa
! sym model: HCO_model
! sort freqs level: RUwb97xd/def2-svp
! sort sp    level: RUwb97xd/def2-svp
! sort G(700.0 K) minimum
! energy level:
!     1.000 x RUccsd(t)-f12-ri/cc-pvdz-f12//RUrevdsd/jun-cc-pvtz
! tors level: RUrevdsd/jun-cc-pvtz//RUrevdsd/jun-cc-pvtz
! CBH reference scheme: basic

! Hf(0 K) = 12.73, ! Hf(298 K) = 6.86 kcal/mol
C5H8(522)               C   5H   8          G     200.0    3000.0  1000.0      1
 2.63922886E+00 3.88613727E-02-1.94606024E-05 4.71714954E-09-4.49014216E-13    2
 4.38766488E+02 7.44707922E+00 3.24329766E+00-3.38968368E-03 1.25830191E-04    3
-1.66576224E-07 6.72005527E-11 1.82339118E+03 1.30653786E+01                   4


! vib model: harm
! tors model: 1dhrfa
! sym model: HCO_model
! sort freqs level: RUwb97xd/def2-svp
! sort sp    level: RUwb97xd/def2-svp
! sort G(700.0 K) minimum
! energy level:
!     1.000 x RUccsd(t)-f12-ri/cc-pvdz-f12//RUrevdsd/jun-cc-pvtz
! tors level: RUrevdsd/jun-cc-pvtz//RUrevdsd/jun-cc-pvtz
! CBH reference scheme: basic

! Hf(0 K) = 29.02, ! Hf(298 K) = 24.48 kcal/mol
C5H8(524)               C   5H   8          G     200.0    3000.0  1000.0      1
 4.57239994E+00 3.46724080E-02-1.69394800E-05 4.01705762E-09-3.75318922E-13    2
 9.18963121E+03 3.86101672E+00 6.50958446E+00 1.30523741E-03 8.59477008E-05    3
-1.12570591E-07 4.47551353E-11 9.76112645E+03-1.70635667E-02                   4


! vib model: harm
! tors model: 1dhrfa
! sym model: HCO_model
! sort freqs level: RUwb97xd/def2-svp
! sort sp    level: RUwb97xd/def2-svp
! sort G(700.0 K) minimum
! energy level:
!     1.000 x RUccsd(t)-f12-ri/cc-pvdz-f12//RUrevdsd/jun-cc-pvtz
! tors level: RUrevdsd/jun-cc-pvtz//RUrevdsd/jun-cc-pvtz
! CBH reference scheme: basic

! Hf(0 K) = 30.08, ! Hf(298 K) = 23.59 kcal/mol
C5H9(553)               C   5H   9          G     200.0    3000.0  1000.0      1
 2.87756557E+00 4.18756973E-02-2.09123428E-05 5.05596481E-09-4.80164748E-13    2
 8.67423855E+03 6.47290300E+00 4.03675712E+00-3.16820042E-03 1.29785509E-04    3
-1.70944807E-07 6.87074620E-11 9.96704635E+03 9.53048070E+00                   4


! vib model: harm
! tors model: 1dhrfa
! sym model: HCO_model
! sort freqs level: RUwb97xd/def2-svp
! sort sp    level: RUwb97xd/def2-svp
! sort G(700.0 K) minimum
! energy level:
!     1.000 x RUccsd(t)-f12-ri/cc-pvdz-f12//RUrevdsd/jun-cc-pvtz
! tors level: RUrevdsd/jun-cc-pvtz//RUrevdsd/jun-cc-pvtz
! CBH reference scheme: basic

! Hf(0 K) = 47.40, ! Hf(298 K) = 42.40 kcal/mol
C5H9(536)               C   5H   9          G     200.0    3000.0  1000.0      1
 4.85000682E+00 3.63248992E-02-1.74613976E-05 4.08822611E-09-3.78040608E-13    2
 1.80883382E+04 5.52107194E+00 7.73773506E+00-1.69877054E-03 9.46789127E-05    3
-1.20969160E-07 4.76749771E-11 1.84860845E+04-2.80059241E+00                   4


! vib model: harm
! tors model: 1dhrfa
! sym model: HCO_model
! sort freqs level: RUwb97xd/def2-svp
! sort sp    level: RUwb97xd/def2-svp
! sort G(700.0 K) minimum
! energy level:
!     1.000 x RUccsd(t)-f12-ri/cc-pvdz-f12//RUrevdsd/jun-cc-pvtz
! tors level: RUrevdsd/jun-cc-pvtz//RUrevdsd/jun-cc-pvtz
! CBH reference scheme: basic

! Hf(0 K) = -11.68, ! Hf(298 K) = -19.20 kcal/mol
CPT(563)                C   5H  10          G     200.0    3000.0  1000.0      1
 1.21808210E+00 4.70976097E-02-2.35038362E-05 5.67906171E-09-5.39064233E-13    2
-1.26154764E+04 1.62023027E+01 4.54663700E+00-1.34652102E-02 1.64428120E-04    3
-2.07655439E-07 8.20977447E-11-1.15003436E+04 1.02585996E+01                   4


! vib model: harm
! tors model: 1dhrfa
! sym model: HCO_model
! sort freqs level: RUwb97xd/def2-svp
! sort sp    level: RUwb97xd/def2-svp
! sort G(700.0 K) minimum
! energy level:
!     1.000 x RUccsd(t)-f12-ri/cc-pvdz-f12//RUrevdsd/jun-cc-pvtz
! tors level: RUrevdsd/jun-cc-pvtz//RUrevdsd/jun-cc-pvtz
! CBH reference scheme: basic

! Hf(0 K) = 12.24, ! Hf(298 K) = 7.34 kcal/mol
S(1288)rs0              C   5H   6O   1     G     200.0    3000.0  1000.0      1
 5.57380574E+00 3.27538339E-02-1.66902183E-05 4.10767990E-09-3.96076390E-13    2
-8.53895047E+01-6.89696089E+00 1.33709948E+00 1.27043399E-02 8.89191880E-05    3
-1.34799538E-07 5.71879350E-11 2.18293041E+03 2.15203631E+01                   4


! vib model: harm
! tors model: 1dhrfa
! sym model: HCO_model
! sort freqs level: RUwb97xd/def2-svp
! sort sp    level: RUwb97xd/def2-svp
! sort G(700.0 K) minimum
! energy level:
!     1.000 x RUccsd(t)-f12-ri/cc-pvdz-f12//RUrevdsd/jun-cc-pvtz
! tors level: RUrevdsd/jun-cc-pvtz//RUrevdsd/jun-cc-pvtz
! CBH reference scheme: basic

! Hf(0 K) = 12.24, ! Hf(298 K) = 7.34 kcal/mol
S(1288)rs1              C   5H   6O   1     G     200.0    3000.0  1000.0      1
 5.57380574E+00 3.27538339E-02-1.66902183E-05 4.10767990E-09-3.96076390E-13    2
-8.53895047E+01-6.89696089E+00 1.33709948E+00 1.27043399E-02 8.89191880E-05    3
-1.34799538E-07 5.71879350E-11 2.18293041E+03 2.15203631E+01                   4


! vib model: harm
! tors model: 1dhrfa
! sym model: HCO_model
! sort freqs level: RUwb97xd/def2-svp
! sort sp    level: RUwb97xd/def2-svp
! sort G(700.0 K) minimum
! energy level:
!     1.000 x RUccsd(t)-f12-ri/cc-pvdz-f12//RUrevdsd/jun-cc-pvtz
! tors level: RUrevdsd/jun-cc-pvtz//RUrevdsd/jun-cc-pvtz
! CBH reference scheme: basic

! Hf(0 K) = 61.10, ! Hf(298 K) = 56.49 kcal/mol
S(1688)r0               C   5H   6O   1     G     200.0    3000.0  1000.0      1
 6.04516231E+00 3.21984981E-02-1.63978898E-05 4.03365534E-09-3.88785875E-13    2
 2.46316443E+04-8.29586268E+00 1.30826409E+00 2.15975118E-02 5.92208253E-05    3
-1.00228045E-07 4.35920840E-11 2.67320485E+04 2.09757825E+01                   4


! vib model: harm
! tors model: 1dhrfa
! sym model: HCO_model
! sort freqs level: RUwb97xd/def2-svp
! sort sp    level: RUwb97xd/def2-svp
! sort G(700.0 K) minimum
! energy level:
!     1.000 x RUccsd(t)-f12-ri/cc-pvdz-f12//RUrevdsd/jun-cc-pvtz
! tors level: RUrevdsd/jun-cc-pvtz//RUrevdsd/jun-cc-pvtz
! CBH reference scheme: basic

! Hf(0 K) = 61.10, ! Hf(298 K) = 56.49 kcal/mol
S(1688)r1               C   5H   6O   1     G     200.0    3000.0  1000.0      1
 6.04516231E+00 3.21984981E-02-1.63978898E-05 4.03365534E-09-3.88785875E-13    2
 2.46316443E+04-8.29586268E+00 1.30826409E+00 2.15975118E-02 5.92208253E-05    3
-1.00228045E-07 4.35920840E-11 2.67320485E+04 2.09757825E+01                   4


! vib model: harm
! tors model: 1dhrfa
! sym model: HCO_model
! sort freqs level: RUwb97xd/def2-svp
! sort sp    level: RUwb97xd/def2-svp
! sort G(700.0 K) minimum
! energy level:
!     1.000 x RUccsd(t)-f12-ri/cc-pvdz-f12//RUrevdsd/jun-cc-pvtz
! tors level: RUrevdsd/jun-cc-pvtz//RUrevdsd/jun-cc-pvtz
! CBH reference scheme: basic

! Hf(0 K) = 1.88, ! Hf(298 K) = -1.73 kcal/mol
C5H6O(645)z             C   5H   6O   1     G     200.0    3000.0  1000.0      1
 9.70055554E+00 2.60475207E-02-1.29746684E-05 3.13978103E-09-2.98968687E-13    2
-5.58214070E+03-2.36826708E+01 4.53160613E+00 1.29841686E-02 7.53224676E-05    3
-1.17772270E-07 5.05482477E-11-3.25532445E+03 8.53016371E+00                   4


! vib model: harm
! tors model: 1dhrfa
! sym model: HCO_model
! sort freqs level: RUwb97xd/def2-svp
! sort sp    level: RUwb97xd/def2-svp
! sort G(700.0 K) minimum
! energy level:
!     1.000 x RUccsd(t)-f12-ri/cc-pvdz-f12//RUrevdsd/jun-cc-pvtz
! tors level: RUrevdsd/jun-cc-pvtz//RUrevdsd/jun-cc-pvtz
! CBH reference scheme: basic

! Hf(0 K) = -1.46, ! Hf(298 K) = -4.82 kcal/mol
C5H6O(645)e             C   5H   6O   1     G     200.0    3000.0  1000.0      1
 1.02670963E+01 2.43930338E-02-1.16826516E-05 2.72954918E-09-2.52152380E-13    2
-6.89188834E+03-2.58368556E+01 4.72758875E-01 5.61505070E-02-4.04725015E-05    3
 2.02956408E-09 7.27454684E-12-4.71001444E+03 2.28091358E+01                   4


! vib model: harm
! tors model: 1dhrfa
! sym model: HCO_model
! sort freqs level: RUwb97xd/def2-svp
! sort sp    level: RUwb97xd/def2-svp
! sort G(700.0 K) minimum
! energy level:
!     1.000 x RUccsd(t)-f12-ri/cc-pvdz-f12//RUrevdsd/jun-cc-pvtz
! tors level: RUrevdsd/jun-cc-pvtz//RUrevdsd/jun-cc-pvtz
! CBH reference scheme: basic

! Hf(0 K) = 34.63, ! Hf(298 K) = 29.52 kcal/mol
C5Oqidgnvrs             C   5H   6O   1     G     200.0    3000.0  1000.0      1
 5.93029060E+00 3.22335158E-02-1.63887139E-05 4.02762735E-09-3.87988857E-13    2
 1.09089036E+04-1.04296038E+01 1.30545995E-01 1.59375490E-02 8.95289591E-05    3
-1.41044845E-07 6.08625220E-11 1.35687565E+04 2.60156060E+01                   4


! vib model: harm
! tors model: 1dhrfa
! sym model: HCO_model
! sort freqs level: RUwb97xd/def2-svp
! sort sp    level: RUwb97xd/def2-svp
! sort G(700.0 K) minimum
! energy level:
!     1.000 x RUccsd(t)-f12-ri/cc-pvdz-f12//RUrevdsd/jun-cc-pvtz
! tors level: RUrevdsd/jun-cc-pvtz//RUrevdsd/jun-cc-pvtz
! CBH reference scheme: basic

! Hf(0 K) = 26.34, ! Hf(298 K) = 20.87 kcal/mol
S(1289)rs               C   5H   7O   1     G     200.0    3000.0  1000.0      1
 5.62193323E+00 3.60653457E-02-1.83197876E-05 4.49453314E-09-4.32135477E-13    2
 6.59783455E+03-6.55899947E+00 2.80114209E+00 8.53119478E-03 1.02268461E-04    3
-1.47749324E-07 6.15784158E-11 8.64847250E+03 1.54116768E+01                   4


! vib model: harm
! tors model: 1dhrfa
! sym model: HCO_model
! sort freqs level: RUwb97xd/def2-svp
! sort sp    level: RUwb97xd/def2-svp
! sort G(700.0 K) minimum
! energy level:
!     1.000 x RUccsd(t)-f12-ri/cc-pvdz-f12//RUrevdsd/jun-cc-pvtz
! tors level: RUrevdsd/jun-cc-pvtz//RUrevdsd/jun-cc-pvtz
! CBH reference scheme: basic

! Hf(0 K) = 25.79, ! Hf(298 K) = 20.26 kcal/mol
C5H7O(758)rs0           C   5H   7O   1     G     200.0    3000.0  1000.0      1
 5.71321604E+00 3.57642694E-02-1.80952116E-05 4.42687881E-09-4.24759783E-13    2
 6.27728289E+03-6.51659830E+00 2.08344538E+00 1.32593917E-02 9.12109686E-05    3
-1.36887789E-07 5.77183763E-11 8.42413876E+03 1.89778619E+01                   4


! vib model: harm
! tors model: 1dhrfa
! sym model: HCO_model
! sort freqs level: RUwb97xd/def2-svp
! sort sp    level: RUwb97xd/def2-svp
! sort G(700.0 K) minimum
! energy level:
!     1.000 x RUccsd(t)-f12-ri/cc-pvdz-f12//RUrevdsd/jun-cc-pvtz
! tors level: RUrevdsd/jun-cc-pvtz//RUrevdsd/jun-cc-pvtz
! CBH reference scheme: basic

! Hf(0 K) = 25.79, ! Hf(298 K) = 20.26 kcal/mol
C5H7O(758)rs1           C   5H   7O   1     G     200.0    3000.0  1000.0      1
 5.71321604E+00 3.57642694E-02-1.80952116E-05 4.42687881E-09-4.24759783E-13    2
 6.27728289E+03-6.51659830E+00 2.08344538E+00 1.32593917E-02 9.12109686E-05    3
-1.36887789E-07 5.77183763E-11 8.42413876E+03 1.89778619E+01                   4


! vib model: harm
! tors model: 1dhrfa
! sym model: HCO_model
! sort freqs level: RUwb97xd/def2-svp
! sort sp    level: RUwb97xd/def2-svp
! sort G(700.0 K) minimum
! energy level:
!     1.000 x RUccsd(t)-f12-ri/cc-pvdz-f12//RUrevdsd/jun-cc-pvtz
! tors level: RUrevdsd/jun-cc-pvtz//RUrevdsd/jun-cc-pvtz
! CBH reference scheme: basic

! Hf(0 K) = 34.97, ! Hf(298 K) = 29.30 kcal/mol
S(1314)r0               C   5H   7O   1     G     200.0    3000.0  1000.0      1
 4.73579481E+00 3.71531887E-02-1.89010611E-05 4.64272369E-09-4.46802713E-13    2
 1.10583317E+04-1.72911667E+00 2.60501236E+00 5.82336739E-03 1.09043394E-04    3
-1.53701278E-07 6.34133484E-11 1.30198435E+04 1.71636973E+01                   4


! vib model: harm
! tors model: 1dhrfa
! sym model: HCO_model
! sort freqs level: RUwb97xd/def2-svp
! sort sp    level: RUwb97xd/def2-svp
! sort G(700.0 K) minimum
! energy level:
!     1.000 x RUccsd(t)-f12-ri/cc-pvdz-f12//RUrevdsd/jun-cc-pvtz
! tors level: RUrevdsd/jun-cc-pvtz//RUrevdsd/jun-cc-pvtz
! CBH reference scheme: basic

! Hf(0 K) = 34.97, ! Hf(298 K) = 29.30 kcal/mol
S(1314)r1               C   5H   7O   1     G     200.0    3000.0  1000.0      1
 4.73579481E+00 3.71531887E-02-1.89010611E-05 4.64272369E-09-4.46802713E-13    2
 1.10583317E+04-1.72911667E+00 2.60501236E+00 5.82336739E-03 1.09043394E-04    3
-1.53701278E-07 6.34133484E-11 1.30198435E+04 1.71636973E+01                   4


! vib model: harm
! tors model: 1dhrfa
! sym model: HCO_model
! sort freqs level: RUwb97xd/def2-svp
! sort sp    level: RUwb97xd/def2-svp
! sort G(700.0 K) minimum
! energy level:
!     1.000 x RUccsd(t)-f12-ri/cc-pvdz-f12//RUrevdsd/jun-cc-pvtz
! tors level: RUrevdsd/jun-cc-pvtz//RUrevdsd/jun-cc-pvtz
! CBH reference scheme: basic

! Hf(0 K) = -17.17, ! Hf(298 K) = -23.86 kcal/mol
C5H8O(825)rs            C   5H   8O   1     G     200.0    3000.0  1000.0      1
 3.96610569E+00 4.12733081E-02-2.09008403E-05 5.11434255E-09-4.90644658E-13    2
-1.56730548E+04 1.04308033E-02 2.79379035E+00 1.37827566E-03 1.29793286E-04    3
-1.77449016E-07 7.24459358E-11-1.37310750E+04 1.52767754E+01                   4


! vib model: harm
! tors model: 1dhrfa
! sym model: HCO_model
! sort freqs level: RUwb97xd/def2-svp
! sort sp    level: RUwb97xd/def2-svp
! sort G(700.0 K) minimum
! energy level:
!     1.000 x RUccsd(t)-f12-ri/cc-pvdz-f12//RUrevdsd/jun-cc-pvtz
! tors level: RUrevdsd/jun-cc-pvtz//RUrevdsd/jun-cc-pvtz
! CBH reference scheme: basic

! Hf(0 K) = -26.70, ! Hf(298 K) = -32.63 kcal/mol
S(1228)r0               C   5H   8O   1     G     200.0    3000.0  1000.0      1
 5.78849663E+00 3.73807379E-02-1.84804597E-05 4.44338321E-09-4.20819736E-13    2
-2.02460896E+04-5.46634260E+00 2.70534337E+00 2.37141459E-02 5.33116182E-05    3
-8.87422146E-08 3.77224455E-11-1.85925865E+04 1.51279283E+01                   4


! vib model: harm
! tors model: 1dhrfa
! sym model: HCO_model
! sort freqs level: RUwb97xd/def2-svp
! sort sp    level: RUwb97xd/def2-svp
! sort G(700.0 K) minimum
! energy level:
!     1.000 x RUccsd(t)-f12-ri/cc-pvdz-f12//RUrevdsd/jun-cc-pvtz
! tors level: RUrevdsd/jun-cc-pvtz//RUrevdsd/jun-cc-pvtz
! CBH reference scheme: basic

! Hf(0 K) = -26.70, ! Hf(298 K) = -32.63 kcal/mol
S(1228)r1               C   5H   8O   1     G     200.0    3000.0  1000.0      1
 5.78849663E+00 3.73807379E-02-1.84804597E-05 4.44338321E-09-4.20819736E-13    2
-2.02460896E+04-5.46634260E+00 2.70534337E+00 2.37141459E-02 5.33116182E-05    3
-8.87422146E-08 3.77224455E-11-1.85925865E+04 1.51279283E+01                   4


! vib model: harm
! tors model: 1dhrfa
! sym model: HCO_model
! sort freqs level: RUwb97xd/def2-svp
! sort sp    level: RUwb97xd/def2-svp
! sort G(700.0 K) minimum
! energy level:
!     1.000 x RUccsd(t)-f12-ri/cc-pvdz-f12//RUrevdsd/jun-cc-pvtz
! tors level: RUrevdsd/jun-cc-pvtz//RUrevdsd/jun-cc-pvtz
! CBH reference scheme: basic

! Hf(0 K) = -30.21, ! Hf(298 K) = -36.25 kcal/mol
S(1227)                 C   5H   8O   1     G     200.0    3000.0  1000.0      1
 6.25389518E+00 3.68105289E-02-1.81669112E-05 4.36054339E-09-4.12344755E-13    2
-2.21780087E+04-9.21344925E+00 6.18015052E-01 3.78454133E-02 2.39467519E-05    3
-6.33256461E-08 2.97611773E-11-2.02106155E+04 2.26447981E+01                   4


! vib model: harm
! tors model: 1dhrfa
! sym model: HCO_model
! sort freqs level: RUwb97xd/def2-svp
! sort sp    level: RUwb97xd/def2-svp
! sort G(700.0 K) minimum
! energy level:
!     1.000 x RUccsd(t)-f12-ri/cc-pvdz-f12//RUrevdsd/jun-cc-pvtz