THERMO


! vib model: harm
! tors model: 1dhrfa
! sym model: HCO_model
! sort freqs level: RUwb97xd/def2-svp
! sort sp    level: RUwb97xd/def2-svp
! sort G(700.0 K) minimum
! energy level:
!     1.000 x RUccsd(t)-f12-ri/cc-pvdz-f12//RUrevdsd/def2-tzvpp
! tors level: RUrevdsd/def2-tzvpp//RUrevdsd/def2-tzvpp
! CBH reference scheme: basic



! Hf(0 K) = -26.78, ! Hf(298 K) = -32.73 kcal/mol
S(1228)r0               C   5H   8O   1     G     200.0    3000.0  1000.0      1
 5.83717680E+00 3.72831669E-02-1.84198434E-05 4.42752024E-09-4.19306046E-13    2
-2.02957593E+04-6.47481441E+00 1.97426010E+00 2.93135844E-02 3.95065712E-05    3
-7.47171547E-08 3.26314535E-11-1.85808394E+04 1.73345124E+01                   4




END

